Version 4
SHEET 1 900 680
WIRE 160 -400 -64 -400
WIRE 448 -400 160 -400
WIRE 160 -320 160 -400
WIRE 448 -320 448 -400
WIRE 304 -272 224 -272
WIRE 384 -272 304 -272
WIRE 304 -192 304 -272
WIRE 448 -192 448 -224
WIRE 448 -192 304 -192
WIRE 448 -64 448 -192
WIRE 160 -16 160 -224
WIRE 160 -16 16 -16
WIRE 384 -16 160 -16
WIRE 16 48 16 -16
WIRE 448 160 448 32
WIRE 448 160 304 160
WIRE 560 160 448 160
WIRE 304 208 304 160
WIRE 560 208 560 160
WIRE -64 256 -64 -400
WIRE 240 256 96 256
WIRE 720 256 624 256
WIRE 96 272 96 256
WIRE -64 368 -64 336
WIRE -64 368 -160 368
WIRE 96 368 96 352
WIRE 96 368 -64 368
WIRE 720 368 720 256
WIRE 720 368 96 368
WIRE -160 384 -160 368
WIRE -64 400 -64 368
WIRE 560 416 560 304
WIRE 848 416 560 416
WIRE 896 416 848 416
WIRE 560 448 560 416
WIRE -64 608 -64 480
WIRE 16 608 16 128
WIRE 16 608 -64 608
WIRE 304 608 304 304
WIRE 304 608 16 608
WIRE 560 608 560 528
WIRE 560 608 304 608
FLAG -160 384 0
FLAG 848 416 output
SYMBOL pnp 240 304 M180
SYMATTR InstName Q1
SYMATTR Value 2N2907
SYMBOL pnp 624 304 R180
SYMATTR InstName Q2
SYMATTR Value 2N2907
SYMBOL voltage -64 240 R0
SYMATTR InstName V1
SYMATTR Value 5
SYMBOL voltage -64 496 M180
WINDOW 0 24 96 Left 2
WINDOW 3 24 16 Left 2
SYMATTR InstName V2
SYMATTR Value -5
SYMBOL Misc/signal 96 256 R0
WINDOW 3 35 83 Left 2
SYMATTR Value SINE(0 7.5mV 1kHz)
SYMATTR InstName V3
SYMBOL res 544 432 R0
SYMATTR InstName R2
SYMATTR Value 2k
SYMBOL pnp 384 -224 M180
SYMATTR InstName Q3
SYMATTR Value 2N2907
SYMBOL pnp 224 -224 R180
SYMATTR InstName Q4
SYMATTR Value 2N2907
SYMBOL pnp 384 32 M180
SYMATTR InstName Q5
SYMATTR Value 2N2907
SYMBOL res 0 32 R0
SYMATTR InstName R1
SYMATTR Value 8.6k
TEXT -512 -312 Left 2 !.op\n.tran 0.01
